<?xml version="1.0" encoding="UTF-8"?>
<configuration xmlns:xsi="http://www.w3.org/2001/XMLSchema-instance" xsi:noNamespaceSchemaLocation="http://sumo.dlr.de/xsd/sumoConfiguration.xsd">
    <input>
        <net-file value="intersection.net.xml"/>
        <route-files value="routes.xml"/>
        <!-- <additional-files value="traffic_detector.add.xml,tls.xml"/> -->
    </input>
    <time>
        <begin value="0"/>
        <step-length value="0.1"/>
    </time>
    <processing>
        <time-to-teleport value="300"/>
        <ignore-junction-blocker value="60"/>
        <collision.action value="warn"/>
    </processing>
    <report>
        <verbose value="true"/>
        <no-step-log value="false"/>
    </report>
    <gui_only>
        <gui-settings-file value="gui-settings.xml"/>
        <start value="true"/>
    </gui_only>
</configuration>