<?xml version="1.0" encoding="UTF-8"?>

<!-- generated on 2025-05-09 23:12:21 by Eclipse SUMO netconvert Version 1.21.0
<netconvertConfiguration xmlns:xsi="http://www.w3.org/2001/XMLSchema-instance" xsi:noNamespaceSchemaLocation="http://sumo.dlr.de/xsd/netconvertConfiguration.xsd">

    <input>
        <node-files value="nodes.xml"/>
        <edge-files value="edges.xml"/>
        <connection-files value="connections.xml"/>
        <tllogic-files value="tls.xml"/>
    </input>

    <output>
        <output-file value="intersection.net.xml"/>
    </output>

    <junctions>
        <no-internal-links value="false"/>
        <no-turnarounds value="true"/>
    </junctions>

    <report>
        <verbose value="true"/>
    </report>

</netconvertConfiguration>
-->

<net version="1.20" junctionCornerDetail="5" limitTurnSpeed="5.50" xmlns:xsi="http://www.w3.org/2001/XMLSchema-instance" xsi:noNamespaceSchemaLocation="http://sumo.dlr.de/xsd/net_file.xsd">

    <location netOffset="100.00,100.00" convBoundary="0.00,0.00,200.00,200.00" origBoundary="-100.00,-100.00,100.00,100.00" projParameter="!"/>

    <edge id=":C_0" function="internal">
        <lane id=":C_0_0" index="0" speed="6.51" length="9.03" width="3.20" shape="95.20,110.40 94.85,107.95 93.80,106.20 92.05,105.15 89.60,104.80"/>
    </edge>
    <edge id=":C_1" function="internal">
        <lane id=":C_1_0" index="0" speed="13.89" length="20.80" width="3.20" shape="95.20,110.40 95.20,89.60"/>
        <lane id=":C_1_1" index="1" speed="13.89" length="20.80" width="3.20" shape="98.40,110.40 98.40,89.60"/>
    </edge>
    <edge id=":C_3" function="internal">
        <lane id=":C_3_0" index="0" speed="9.84" length="21.99" width="3.20" shape="98.40,110.40 99.15,103.75 101.40,99.00 105.15,96.15 110.40,95.20"/>
    </edge>
    <edge id=":C_4" function="internal">
        <lane id=":C_4_0" index="0" speed="13.89" length="20.80" width="3.20" shape="110.40,104.80 89.60,104.80"/>
    </edge>
    <edge id=":C_5" function="internal">
        <lane id=":C_5_0" index="0" speed="10.10" length="23.22" width="3.20" shape="110.40,104.80 105.00,103.43 100.11,99.89 96.57,95.00 95.20,89.60"/>
    </edge>
    <edge id=":C_6" function="internal">
        <lane id=":C_6_0" index="0" speed="7.33" length="11.73" width="3.20" shape="110.40,101.60 107.95,102.15 106.20,103.80 105.15,106.55 104.80,110.40"/>
    </edge>
    <edge id=":C_7" function="internal">
        <lane id=":C_7_0" index="0" speed="13.89" length="20.80" width="3.20" shape="110.40,101.60 89.60,101.60"/>
    </edge>
    <edge id=":C_8" function="internal">
        <lane id=":C_8_0" index="0" speed="6.51" length="9.03" width="3.20" shape="104.80,89.60 105.15,92.05 106.20,93.80 107.95,94.85 110.40,95.20"/>
    </edge>
    <edge id=":C_9" function="internal">
        <lane id=":C_9_0" index="0" speed="13.89" length="20.80" width="3.20" shape="104.80,89.60 104.80,110.40"/>
        <lane id=":C_9_1" index="1" speed="13.89" length="20.80" width="3.20" shape="101.60,89.60 101.60,110.40"/>
    </edge>
    <edge id=":C_11" function="internal">
        <lane id=":C_11_0" index="0" speed="9.84" length="21.99" width="3.20" shape="101.60,89.60 100.85,96.25 98.60,101.00 94.85,103.85 89.60,104.80"/>
    </edge>
    <edge id=":C_12" function="internal">
        <lane id=":C_12_0" index="0" speed="13.89" length="20.80" width="3.20" shape="89.60,95.20 110.40,95.20"/>
    </edge>
    <edge id=":C_13" function="internal">
        <lane id=":C_13_0" index="0" speed="10.10" length="23.22" width="3.20" shape="89.60,95.20 95.00,96.57 99.89,100.11 103.43,105.00 104.80,110.40"/>
    </edge>
    <edge id=":C_14" function="internal">
        <lane id=":C_14_0" index="0" speed="7.33" length="11.73" width="3.20" shape="89.60,98.40 92.05,97.85 93.80,96.20 94.85,93.45 95.20,89.60"/>
    </edge>
    <edge id=":C_15" function="internal">
        <lane id=":C_15_0" index="0" speed="13.89" length="20.80" width="3.20" shape="89.60,98.40 110.40,98.40"/>
    </edge>

    <edge id="C2E" from="C" to="E" priority="1">
        <lane id="C2E_0" index="0" speed="13.89" length="89.60" width="3.20" shape="110.40,95.20 200.00,95.20"/>
        <lane id="C2E_1" index="1" speed="13.89" length="89.60" width="3.20" shape="110.40,98.40 200.00,98.40"/>
    </edge>
    <edge id="C2N" from="C" to="N" priority="1">
        <lane id="C2N_0" index="0" speed="13.89" length="89.60" width="3.20" shape="104.80,110.40 104.80,200.00"/>
        <lane id="C2N_1" index="1" speed="13.89" length="89.60" width="3.20" shape="101.60,110.40 101.60,200.00"/>
    </edge>
    <edge id="C2S" from="C" to="S" priority="1">
        <lane id="C2S_0" index="0" speed="13.89" length="89.60" width="3.20" shape="95.20,89.60 95.20,0.00"/>
        <lane id="C2S_1" index="1" speed="13.89" length="89.60" width="3.20" shape="98.40,89.60 98.40,0.00"/>
    </edge>
    <edge id="C2W" from="C" to="W" priority="1">
        <lane id="C2W_0" index="0" speed="13.89" length="89.60" width="3.20" shape="89.60,104.80 0.00,104.80"/>
        <lane id="C2W_1" index="1" speed="13.89" length="89.60" width="3.20" shape="89.60,101.60 0.00,101.60"/>
    </edge>
    <edge id="E2C" from="E" to="C" priority="1">
        <lane id="E2C_0" index="0" speed="13.89" length="89.60" width="3.20" shape="200.00,104.80 110.40,104.80"/>
        <lane id="E2C_1" index="1" speed="13.89" length="89.60" width="3.20" shape="200.00,101.60 110.40,101.60"/>
    </edge>
    <edge id="N2C" from="N" to="C" priority="1">
        <lane id="N2C_0" index="0" speed="13.89" length="89.60" width="3.20" shape="95.20,200.00 95.20,110.40"/>
        <lane id="N2C_1" index="1" speed="13.89" length="89.60" width="3.20" shape="98.40,200.00 98.40,110.40"/>
    </edge>
    <edge id="S2C" from="S" to="C" priority="1">
        <lane id="S2C_0" index="0" speed="13.89" length="89.60" width="3.20" shape="104.80,0.00 104.80,89.60"/>
        <lane id="S2C_1" index="1" speed="13.89" length="89.60" width="3.20" shape="101.60,0.00 101.60,89.60"/>
    </edge>
    <edge id="W2C" from="W" to="C" priority="1">
        <lane id="W2C_0" index="0" speed="13.89" length="89.60" width="3.20" shape="0.00,95.20 89.60,95.20"/>
        <lane id="W2C_1" index="1" speed="13.89" length="89.60" width="3.20" shape="0.00,98.40 89.60,98.40"/>
    </edge>

    <tlLogic id="C" type="static" programID="custom" offset="0">
        <phase duration="30" state="GGGGrrrrrrrrrrrr"/>
        <phase duration="4"  state="yyyyrrrrrrrrrrrr"/>
        <phase duration="30" state="rrrrGGGGrrrrrrrr"/>
        <phase duration="4"  state="rrrryyyyrrrrrrrr"/>
        <phase duration="30" state="rrrrrrrrGGGGrrrr"/>
        <phase duration="4"  state="rrrrrrrryyyyrrrr"/>
        <phase duration="30" state="rrrrrrrrrrrrGGGG"/>
        <phase duration="4"  state="rrrrrrrrrrrryyyy"/>
    </tlLogic>

    <junction id="C" type="traffic_light" x="100.00" y="100.00" incLanes="N2C_0 N2C_1 E2C_0 E2C_1 S2C_0 S2C_1 W2C_0 W2C_1" intLanes=":C_0_0 :C_1_0 :C_1_1 :C_3_0 :C_4_0 :C_5_0 :C_6_0 :C_7_0 :C_8_0 :C_9_0 :C_9_1 :C_11_0 :C_12_0 :C_13_0 :C_14_0 :C_15_0" shape="93.60,110.40 106.40,110.40 106.84,108.18 107.40,107.40 108.18,106.84 109.18,106.51 110.40,106.40 110.40,93.60 108.18,93.16 107.40,92.60 106.84,91.82 106.51,90.82 106.40,89.60 93.60,89.60 93.16,91.82 92.60,92.60 91.82,93.16 90.82,93.49 89.60,93.60 89.60,106.40 91.82,106.84 92.60,107.40 93.16,108.18 93.49,109.18">
        <request index="0"  response="0000000000000000" foes="0000100010010000" cont="0"/>
        <request index="1"  response="0000000000000000" foes="1111100010110000" cont="0"/>
        <request index="2"  response="0000000000000000" foes="1111100010110000" cont="0"/>
        <request index="3"  response="0000111100000000" foes="1011111110110000" cont="0"/>
        <request index="4"  response="0000111000001111" foes="0010111001001111" cont="0"/>
        <request index="5"  response="1111111010001110" foes="1111111011001110" cont="0"/>
        <request index="6"  response="0000011000110000" foes="0010011000110000" cont="0"/>
        <request index="7"  response="0000111000001111" foes="0010111000101111" cont="0"/>
        <request index="8"  response="0000000000000000" foes="1001000000001000" cont="0"/>
        <request index="9"  response="0000000000000000" foes="1011000011111000" cont="0"/>
        <request index="10" response="0000000000000000" foes="1011000011111000" cont="0"/>
        <request index="11" response="0000000000000111" foes="1011000010111111" cont="0"/>
        <request index="12" response="0000111100001110" foes="0100111100101110" cont="0"/>
        <request index="13" response="1000111011011110" foes="1100111011111110" cont="0"/>
        <request index="14" response="0011000000000110" foes="0011000000100110" cont="0"/>
        <request index="15" response="0000111100001110" foes="0010111100101110" cont="0"/>
    </junction>
    <junction id="E" type="dead_end" x="200.00" y="100.00" incLanes="C2E_0 C2E_1" intLanes="" shape="200.00,100.00 200.00,93.60 200.00,100.00"/>
    <junction id="N" type="dead_end" x="100.00" y="200.00" incLanes="C2N_0 C2N_1" intLanes="" shape="100.00,200.00 106.40,200.00 100.00,200.00"/>
    <junction id="S" type="dead_end" x="100.00" y="0.00" incLanes="C2S_0 C2S_1" intLanes="" shape="100.00,0.00 93.60,0.00 100.00,0.00"/>
    <junction id="W" type="dead_end" x="0.00" y="100.00" incLanes="C2W_0 C2W_1" intLanes="" shape="0.00,100.00 0.00,106.40 0.00,100.00"/>

    <connection from="E2C" to="C2W" fromLane="0" toLane="0" via=":C_4_0" tl="C" linkIndex="4" dir="s" state="o"/>
    <connection from="E2C" to="C2S" fromLane="0" toLane="0" via=":C_5_0" tl="C" linkIndex="5" dir="l" state="o"/>
    <connection from="E2C" to="C2N" fromLane="1" toLane="0" via=":C_6_0" tl="C" linkIndex="6" dir="r" state="o"/>
    <connection from="E2C" to="C2W" fromLane="1" toLane="1" via=":C_7_0" tl="C" linkIndex="7" dir="s" state="o"/>
    <connection from="N2C" to="C2W" fromLane="0" toLane="0" via=":C_0_0" tl="C" linkIndex="0" dir="r" state="O"/>
    <connection from="N2C" to="C2S" fromLane="0" toLane="0" via=":C_1_0" tl="C" linkIndex="1" dir="s" state="O"/>
    <connection from="N2C" to="C2S" fromLane="1" toLane="1" via=":C_1_1" tl="C" linkIndex="2" dir="s" state="O"/>
    <connection from="N2C" to="C2E" fromLane="1" toLane="0" via=":C_3_0" tl="C" linkIndex="3" dir="l" state="o"/>
    <connection from="S2C" to="C2E" fromLane="0" toLane="0" via=":C_8_0" tl="C" linkIndex="8" dir="r" state="O"/>
    <connection from="S2C" to="C2N" fromLane="0" toLane="0" via=":C_9_0" tl="C" linkIndex="9" dir="s" state="O"/>
    <connection from="S2C" to="C2N" fromLane="1" toLane="1" via=":C_9_1" tl="C" linkIndex="10" dir="s" state="O"/>
    <connection from="S2C" to="C2W" fromLane="1" toLane="0" via=":C_11_0" tl="C" linkIndex="11" dir="l" state="o"/>
    <connection from="W2C" to="C2E" fromLane="0" toLane="0" via=":C_12_0" tl="C" linkIndex="12" dir="s" state="o"/>
    <connection from="W2C" to="C2N" fromLane="0" toLane="0" via=":C_13_0" tl="C" linkIndex="13" dir="l" state="o"/>
    <connection from="W2C" to="C2S" fromLane="1" toLane="0" via=":C_14_0" tl="C" linkIndex="14" dir="r" state="o"/>
    <connection from="W2C" to="C2E" fromLane="1" toLane="1" via=":C_15_0" tl="C" linkIndex="15" dir="s" state="o"/>

    <connection from=":C_0" to="C2W" fromLane="0" toLane="0" dir="r" state="M"/>
    <connection from=":C_1" to="C2S" fromLane="0" toLane="0" dir="s" state="M"/>
    <connection from=":C_1" to="C2S" fromLane="1" toLane="1" dir="s" state="M"/>
    <connection from=":C_3" to="C2E" fromLane="0" toLane="0" dir="l" state="M"/>
    <connection from=":C_4" to="C2W" fromLane="0" toLane="0" dir="s" state="M"/>
    <connection from=":C_5" to="C2S" fromLane="0" toLane="0" dir="l" state="M"/>
    <connection from=":C_6" to="C2N" fromLane="0" toLane="0" dir="r" state="M"/>
    <connection from=":C_7" to="C2W" fromLane="0" toLane="1" dir="s" state="M"/>
    <connection from=":C_8" to="C2E" fromLane="0" toLane="0" dir="r" state="M"/>
    <connection from=":C_9" to="C2N" fromLane="0" toLane="0" dir="s" state="M"/>
    <connection from=":C_9" to="C2N" fromLane="1" toLane="1" dir="s" state="M"/>
    <connection from=":C_11" to="C2W" fromLane="0" toLane="0" dir="l" state="M"/>
    <connection from=":C_12" to="C2E" fromLane="0" toLane="0" dir="s" state="M"/>
    <connection from=":C_13" to="C2N" fromLane="0" toLane="0" dir="l" state="M"/>
    <connection from=":C_14" to="C2S" fromLane="0" toLane="0" dir="r" state="M"/>
    <connection from=":C_15" to="C2E" fromLane="0" toLane="1" dir="s" state="M"/>

</net>
